<routes>
        <vType id="typeWE" accel="0.8" decel="4.5" sigma="0.5" length="5" minGap="2.5" maxSpeed="16.67" guiShape="passenger"/>
        <vType id="typeNS" accel="0.8" decel="4.5" sigma="0.5" length="17" minGap="3" maxSpeed="25" guiShape="bus"/>

        <route id="right" edges="51o 1i 2o 52i" />
        <route id="left" edges="52o 2i 1o 51i" />
        <route id="down" edges="54o 4i 3o 53i" />
    <vehicle id="0" type="typeWE" route="left" depart="8" />
    <vehicle id="1" type="typeWE" route="right" depart="13" />
    <vehicle id="2" type="typeNS" route="down" depart="13" color="1,0,0"/>
    <vehicle id="3" type="typeWE" route="left" depart="19" />
    <vehicle id="4" type="typeWE" route="left" depart="21" />
    <vehicle id="5" type="typeWE" route="right" depart="22" />
    <vehicle id="6" type="typeWE" route="right" depart="30" />
    <vehicle id="7" type="typeWE" route="right" depart="31" />
    <vehicle id="8" type="typeWE" route="left" depart="33" />
    <vehicle id="9" type="typeWE" route="right" depart="37" />
    <vehicle id="10" type="typeWE" route="left" depart="40" />
    <vehicle id="11" type="typeWE" route="right" depart="41" />
    <vehicle id="12" type="typeWE" route="left" depart="44" />
    <vehicle id="13" type="typeWE" route="left" depart="47" />
    <vehicle id="14" type="typeWE" route="right" depart="52" />
    <vehicle id="15" type="typeWE" route="right" depart="56" />
    <vehicle id="16" type="typeWE" route="left" depart="57" />
    <vehicle id="17" type="typeWE" route="left" depart="59" />
    <vehicle id="18" type="typeWE" route="left" depart="68" />
    <vehicle id="19" type="typeNS" route="down" depart="79" color="1,0,0"/>
    <vehicle id="20" type="typeWE" route="left" depart="81" />
    <vehicle id="21" type="typeWE" route="left" depart="83" />
    <vehicle id="22" type="typeWE" route="right" depart="92" />
    <vehicle id="23" type="typeWE" route="right" depart="100" />
    <vehicle id="24" type="typeWE" route="left" depart="105" />
    <vehicle id="25" type="typeWE" route="right" depart="106" />
    <vehicle id="26" type="typeWE" route="right" depart="109" />
    <vehicle id="27" type="typeWE" route="left" depart="114" />
    <vehicle id="28" type="typeWE" route="left" depart="117" />
    <vehicle id="29" type="typeWE" route="right" depart="121" />
    <vehicle id="30" type="typeNS" route="down" depart="126" color="1,0,0"/>
    <vehicle id="31" type="typeWE" route="left" depart="135" />
    <vehicle id="32" type="typeWE" route="left" depart="142" />
    <vehicle id="33" type="typeWE" route="right" depart="145" />
    <vehicle id="34" type="typeWE" route="right" depart="148" />
    <vehicle id="35" type="typeWE" route="right" depart="149" />
    <vehicle id="36" type="typeWE" route="right" depart="155" />
    <vehicle id="37" type="typeNS" route="down" depart="159" color="1,0,0"/>
    <vehicle id="38" type="typeWE" route="right" depart="166" />
    <vehicle id="39" type="typeWE" route="right" depart="174" />
    <vehicle id="40" type="typeWE" route="right" depart="188" />
    <vehicle id="41" type="typeWE" route="left" depart="190" />
    <vehicle id="42" type="typeWE" route="right" depart="195" />
    <vehicle id="43" type="typeWE" route="left" depart="196" />
    <vehicle id="44" type="typeWE" route="right" depart="198" />
    <vehicle id="45" type="typeNS" route="down" depart="207" color="1,0,0"/>
    <vehicle id="46" type="typeNS" route="down" depart="208" color="1,0,0"/>
    <vehicle id="47" type="typeNS" route="down" depart="216" color="1,0,0"/>
    <vehicle id="48" type="typeWE" route="right" depart="218" />
    <vehicle id="49" type="typeNS" route="down" depart="219" color="1,0,0"/>
    <vehicle id="50" type="typeWE" route="right" depart="221" />
    <vehicle id="51" type="typeWE" route="left" depart="222" />
    <vehicle id="52" type="typeWE" route="right" depart="230" />
    <vehicle id="53" type="typeWE" route="right" depart="232" />
    <vehicle id="54" type="typeWE" route="right" depart="235" />
    <vehicle id="55" type="typeWE" route="left" depart="238" />
    <vehicle id="56" type="typeWE" route="right" depart="244" />
    <vehicle id="57" type="typeWE" route="left" depart="245" />
    <vehicle id="58" type="typeWE" route="left" depart="249" />
    <vehicle id="59" type="typeWE" route="right" depart="257" />
    <vehicle id="60" type="typeWE" route="left" depart="257" />
    <vehicle id="61" type="typeNS" route="down" depart="260" color="1,0,0"/>
    <vehicle id="62" type="typeWE" route="left" depart="264" />
    <vehicle id="63" type="typeWE" route="right" depart="267" />
    <vehicle id="64" type="typeWE" route="right" depart="268" />
    <vehicle id="65" type="typeWE" route="right" depart="272" />
    <vehicle id="66" type="typeWE" route="right" depart="279" />
    <vehicle id="67" type="typeNS" route="down" depart="284" color="1,0,0"/>
    <vehicle id="68" type="typeWE" route="right" depart="285" />
    <vehicle id="69" type="typeNS" route="down" depart="287" color="1,0,0"/>
    <vehicle id="70" type="typeWE" route="left" depart="297" />
    <vehicle id="71" type="typeWE" route="left" depart="303" />
    <vehicle id="72" type="typeWE" route="left" depart="304" />
    <vehicle id="73" type="typeNS" route="down" depart="306" color="1,0,0"/>
    <vehicle id="74" type="typeWE" route="right" depart="313" />
    <vehicle id="75" type="typeWE" route="right" depart="325" />
    <vehicle id="76" type="typeWE" route="right" depart="331" />
    <vehicle id="77" type="typeWE" route="left" depart="332" />
    <vehicle id="78" type="typeWE" route="left" depart="333" />
    <vehicle id="79" type="typeWE" route="left" depart="338" />
    <vehicle id="80" type="typeWE" route="right" depart="343" />
    <vehicle id="81" type="typeWE" route="left" depart="346" />
    <vehicle id="82" type="typeWE" route="right" depart="348" />
    <vehicle id="83" type="typeWE" route="left" depart="355" />
    <vehicle id="84" type="typeWE" route="right" depart="358" />
    <vehicle id="85" type="typeWE" route="right" depart="363" />
    <vehicle id="86" type="typeNS" route="down" depart="365" color="1,0,0"/>
    <vehicle id="87" type="typeWE" route="left" depart="366" />
    <vehicle id="88" type="typeNS" route="down" depart="368" color="1,0,0"/>
    <vehicle id="89" type="typeWE" route="right" depart="378" />
    <vehicle id="90" type="typeWE" route="right" depart="379" />
    <vehicle id="91" type="typeWE" route="right" depart="383" />
    <vehicle id="92" type="typeWE" route="left" depart="386" />
    <vehicle id="93" type="typeWE" route="right" depart="389" />
    <vehicle id="94" type="typeWE" route="right" depart="397" />
    <vehicle id="95" type="typeWE" route="right" depart="402" />
    <vehicle id="96" type="typeWE" route="right" depart="410" />
    <vehicle id="97" type="typeWE" route="right" depart="411" />
    <vehicle id="98" type="typeWE" route="right" depart="425" />
    <vehicle id="99" type="typeWE" route="right" depart="429" />
    <vehicle id="100" type="typeWE" route="right" depart="443" />
    <vehicle id="101" type="typeWE" route="right" depart="444" />
    <vehicle id="102" type="typeWE" route="left" depart="444" />
    <vehicle id="103" type="typeWE" route="right" depart="445" />
    <vehicle id="104" type="typeWE" route="right" depart="447" />
    <vehicle id="105" type="typeWE" route="right" depart="459" />
    <vehicle id="106" type="typeWE" route="left" depart="466" />
    <vehicle id="107" type="typeWE" route="left" depart="468" />
    <vehicle id="108" type="typeWE" route="right" depart="477" />
    <vehicle id="109" type="typeWE" route="right" depart="482" />
    <vehicle id="110" type="typeWE" route="left" depart="484" />
    <vehicle id="111" type="typeWE" route="left" depart="487" />
    <vehicle id="112" type="typeWE" route="left" depart="490" />
    <vehicle id="113" type="typeWE" route="left" depart="491" />
    <vehicle id="114" type="typeWE" route="right" depart="496" />
    <vehicle id="115" type="typeWE" route="left" depart="497" />
    <vehicle id="116" type="typeWE" route="left" depart="504" />
    <vehicle id="117" type="typeWE" route="right" depart="506" />
    <vehicle id="118" type="typeWE" route="right" depart="512" />
    <vehicle id="119" type="typeWE" route="left" depart="513" />
    <vehicle id="120" type="typeWE" route="right" depart="517" />
    <vehicle id="121" type="typeWE" route="right" depart="518" />
    <vehicle id="122" type="typeWE" route="right" depart="522" />
    <vehicle id="123" type="typeWE" route="right" depart="527" />
    <vehicle id="124" type="typeWE" route="right" depart="532" />
    <vehicle id="125" type="typeWE" route="right" depart="533" />
    <vehicle id="126" type="typeWE" route="right" depart="542" />
    <vehicle id="127" type="typeWE" route="left" depart="543" />
    <vehicle id="128" type="typeWE" route="right" depart="549" />
    <vehicle id="129" type="typeWE" route="left" depart="551" />
    <vehicle id="130" type="typeNS" route="down" depart="555" color="1,0,0"/>
    <vehicle id="131" type="typeNS" route="down" depart="557" color="1,0,0"/>
    <vehicle id="132" type="typeWE" route="left" depart="558" />
    <vehicle id="133" type="typeNS" route="down" depart="564" color="1,0,0"/>
    <vehicle id="134" type="typeWE" route="left" depart="565" />
    <vehicle id="135" type="typeWE" route="left" depart="568" />
    <vehicle id="136" type="typeWE" route="right" depart="572" />
    <vehicle id="137" type="typeWE" route="left" depart="573" />
    <vehicle id="138" type="typeWE" route="left" depart="575" />
    <vehicle id="139" type="typeWE" route="left" depart="577" />
    <vehicle id="140" type="typeWE" route="left" depart="580" />
    <vehicle id="141" type="typeWE" route="right" depart="589" />
    <vehicle id="142" type="typeWE" route="left" depart="594" />
    <vehicle id="143" type="typeWE" route="left" depart="597" />
    <vehicle id="144" type="typeWE" route="right" depart="600" />
    <vehicle id="145" type="typeWE" route="right" depart="606" />
    <vehicle id="146" type="typeWE" route="right" depart="610" />
    <vehicle id="147" type="typeWE" route="right" depart="612" />
    <vehicle id="148" type="typeNS" route="down" depart="622" color="1,0,0"/>
    <vehicle id="149" type="typeWE" route="left" depart="625" />
    <vehicle id="150" type="typeWE" route="left" depart="633" />
    <vehicle id="151" type="typeWE" route="left" depart="637" />
    <vehicle id="152" type="typeWE" route="left" depart="638" />
    <vehicle id="153" type="typeWE" route="right" depart="641" />
    <vehicle id="154" type="typeWE" route="left" depart="641" />
    <vehicle id="155" type="typeWE" route="left" depart="647" />
    <vehicle id="156" type="typeWE" route="right" depart="653" />
    <vehicle id="157" type="typeWE" route="right" depart="656" />
    <vehicle id="158" type="typeWE" route="left" depart="657" />
    <vehicle id="159" type="typeWE" route="left" depart="658" />
    <vehicle id="160" type="typeWE" route="left" depart="660" />
    <vehicle id="161" type="typeWE" route="left" depart="663" />
    <vehicle id="162" type="typeNS" route="down" depart="664" color="1,0,0"/>
    <vehicle id="163" type="typeWE" route="left" depart="669" />
    <vehicle id="164" type="typeWE" route="right" depart="671" />
    <vehicle id="165" type="typeWE" route="right" depart="673" />
    <vehicle id="166" type="typeWE" route="right" depart="683" />
    <vehicle id="167" type="typeWE" route="right" depart="691" />
    <vehicle id="168" type="typeWE" route="right" depart="694" />
    <vehicle id="169" type="typeWE" route="right" depart="696" />
    <vehicle id="170" type="typeWE" route="left" depart="696" />
    <vehicle id="171" type="typeWE" route="right" depart="697" />
    <vehicle id="172" type="typeWE" route="right" depart="700" />
    <vehicle id="173" type="typeWE" route="left" depart="700" />
    <vehicle id="174" type="typeWE" route="right" depart="702" />
    <vehicle id="175" type="typeWE" route="left" depart="707" />
    <vehicle id="176" type="typeWE" route="left" depart="708" />
    <vehicle id="177" type="typeWE" route="left" depart="709" />
    <vehicle id="178" type="typeWE" route="left" depart="716" />
    <vehicle id="179" type="typeWE" route="right" depart="717" />
    <vehicle id="180" type="typeWE" route="left" depart="722" />
    <vehicle id="181" type="typeWE" route="right" depart="730" />
    <vehicle id="182" type="typeWE" route="right" depart="732" />
    <vehicle id="183" type="typeWE" route="left" depart="738" />
    <vehicle id="184" type="typeWE" route="right" depart="742" />
    <vehicle id="185" type="typeWE" route="left" depart="743" />
    <vehicle id="186" type="typeNS" route="down" depart="745" color="1,0,0"/>
    <vehicle id="187" type="typeNS" route="down" depart="759" color="1,0,0"/>
    <vehicle id="188" type="typeWE" route="right" depart="760" />
    <vehicle id="189" type="typeWE" route="left" depart="765" />
    <vehicle id="190" type="typeWE" route="left" depart="766" />
    <vehicle id="191" type="typeWE" route="left" depart="770" />
    <vehicle id="192" type="typeWE" route="right" depart="775" />
    <vehicle id="193" type="typeWE" route="left" depart="775" />
    <vehicle id="194" type="typeWE" route="right" depart="780" />
    <vehicle id="195" type="typeNS" route="down" depart="781" color="1,0,0"/>
    <vehicle id="196" type="typeWE" route="left" depart="784" />
    <vehicle id="197" type="typeWE" route="left" depart="791" />
    <vehicle id="198" type="typeWE" route="left" depart="793" />
    <vehicle id="199" type="typeNS" route="down" depart="793" color="1,0,0"/>
    <vehicle id="200" type="typeWE" route="left" depart="797" />
    <vehicle id="201" type="typeWE" route="right" depart="800" />
    <vehicle id="202" type="typeWE" route="left" depart="807" />
    <vehicle id="203" type="typeNS" route="down" depart="812" color="1,0,0"/>
    <vehicle id="204" type="typeWE" route="right" depart="814" />
    <vehicle id="205" type="typeWE" route="right" depart="820" />
    <vehicle id="206" type="typeWE" route="left" depart="824" />
    <vehicle id="207" type="typeWE" route="right" depart="825" />
    <vehicle id="208" type="typeWE" route="right" depart="826" />
    <vehicle id="209" type="typeWE" route="left" depart="827" />
    <vehicle id="210" type="typeWE" route="right" depart="838" />
    <vehicle id="211" type="typeWE" route="left" depart="838" />
    <vehicle id="212" type="typeNS" route="down" depart="846" color="1,0,0"/>
    <vehicle id="213" type="typeWE" route="right" depart="849" />
    <vehicle id="214" type="typeWE" route="right" depart="852" />
    <vehicle id="215" type="typeWE" route="right" depart="855" />
    <vehicle id="216" type="typeWE" route="left" depart="856" />
    <vehicle id="217" type="typeWE" route="left" depart="860" />
    <vehicle id="218" type="typeWE" route="left" depart="869" />
    <vehicle id="219" type="typeWE" route="right" depart="871" />
    <vehicle id="220" type="typeWE" route="left" depart="877" />
    <vehicle id="221" type="typeWE" route="right" depart="879" />
    <vehicle id="222" type="typeWE" route="right" depart="881" />
    <vehicle id="223" type="typeNS" route="down" depart="885" color="1,0,0"/>
    <vehicle id="224" type="typeWE" route="left" depart="886" />
    <vehicle id="225" type="typeWE" route="left" depart="887" />
    <vehicle id="226" type="typeNS" route="down" depart="893" color="1,0,0"/>
    <vehicle id="227" type="typeWE" route="left" depart="895" />
    <vehicle id="228" type="typeWE" route="right" depart="900" />
    <vehicle id="229" type="typeWE" route="right" depart="902" />
    <vehicle id="230" type="typeWE" route="left" depart="902" />
    <vehicle id="231" type="typeWE" route="left" depart="912" />
    <vehicle id="232" type="typeNS" route="down" depart="914" color="1,0,0"/>
    <vehicle id="233" type="typeWE" route="left" depart="917" />
    <vehicle id="234" type="typeNS" route="down" depart="919" color="1,0,0"/>
    <vehicle id="235" type="typeNS" route="down" depart="925" color="1,0,0"/>
    <vehicle id="236" type="typeWE" route="left" depart="936" />
    <vehicle id="237" type="typeWE" route="right" depart="947" />
    <vehicle id="238" type="typeWE" route="right" depart="948" />
    <vehicle id="239" type="typeWE" route="right" depart="952" />
    <vehicle id="240" type="typeWE" route="left" depart="954" />
    <vehicle id="241" type="typeWE" route="left" depart="957" />
    <vehicle id="242" type="typeWE" route="right" depart="958" />
    <vehicle id="243" type="typeWE" route="left" depart="958" />
    <vehicle id="244" type="typeWE" route="right" depart="959" />
    <vehicle id="245" type="typeWE" route="left" depart="959" />
    <vehicle id="246" type="typeWE" route="left" depart="960" />
    <vehicle id="247" type="typeNS" route="down" depart="960" color="1,0,0"/>
    <vehicle id="248" type="typeWE" route="left" depart="967" />
    <vehicle id="249" type="typeWE" route="right" depart="976" />
    <vehicle id="250" type="typeNS" route="down" depart="981" color="1,0,0"/>
    <vehicle id="251" type="typeNS" route="down" depart="989" color="1,0,0"/>
    <vehicle id="252" type="typeWE" route="left" depart="993" />
    <vehicle id="253" type="typeWE" route="right" depart="998" />
    <vehicle id="254" type="typeWE" route="right" depart="1001" />
    <vehicle id="255" type="typeWE" route="left" depart="1010" />
    <vehicle id="256" type="typeWE" route="left" depart="1022" />
    <vehicle id="257" type="typeWE" route="right" depart="1038" />
    <vehicle id="258" type="typeWE" route="left" depart="1045" />
    <vehicle id="259" type="typeNS" route="down" depart="1046" color="1,0,0"/>
    <vehicle id="260" type="typeWE" route="right" depart="1048" />
    <vehicle id="261" type="typeWE" route="right" depart="1067" />
    <vehicle id="262" type="typeWE" route="left" depart="1072" />
    <vehicle id="263" type="typeWE" route="right" depart="1081" />
    <vehicle id="264" type="typeWE" route="right" depart="1086" />
    <vehicle id="265" type="typeWE" route="left" depart="1090" />
    <vehicle id="266" type="typeWE" route="left" depart="1091" />
    <vehicle id="267" type="typeWE" route="left" depart="1105" />
    <vehicle id="268" type="typeWE" route="left" depart="1107" />
    <vehicle id="269" type="typeWE" route="left" depart="1111" />
    <vehicle id="270" type="typeWE" route="right" depart="1123" />
    <vehicle id="271" type="typeWE" route="left" depart="1123" />
    <vehicle id="272" type="typeWE" route="right" depart="1125" />
    <vehicle id="273" type="typeWE" route="right" depart="1131" />
    <vehicle id="274" type="typeWE" route="left" depart="1132" />
    <vehicle id="275" type="typeNS" route="down" depart="1133" color="1,0,0"/>
    <vehicle id="276" type="typeWE" route="right" depart="1134" />
    <vehicle id="277" type="typeWE" route="left" depart="1137" />
    <vehicle id="278" type="typeWE" route="right" depart="1139" />
    <vehicle id="279" type="typeWE" route="right" depart="1148" />
    <vehicle id="280" type="typeWE" route="right" depart="1153" />
    <vehicle id="281" type="typeWE" route="right" depart="1159" />
    <vehicle id="282" type="typeWE" route="left" depart="1163" />
    <vehicle id="283" type="typeWE" route="left" depart="1166" />
    <vehicle id="284" type="typeWE" route="right" depart="1174" />
    <vehicle id="285" type="typeNS" route="down" depart="1175" color="1,0,0"/>
    <vehicle id="286" type="typeWE" route="left" depart="1176" />
    <vehicle id="287" type="typeWE" route="right" depart="1184" />
    <vehicle id="288" type="typeNS" route="down" depart="1185" color="1,0,0"/>
    <vehicle id="289" type="typeWE" route="right" depart="1189" />
    <vehicle id="290" type="typeWE" route="left" depart="1191" />
    <vehicle id="291" type="typeWE" route="left" depart="1192" />
    <vehicle id="292" type="typeWE" route="right" depart="1200" />
    <vehicle id="293" type="typeWE" route="left" depart="1202" />
    <vehicle id="294" type="typeWE" route="right" depart="1213" />
    <vehicle id="295" type="typeWE" route="right" depart="1218" />
    <vehicle id="296" type="typeWE" route="right" depart="1219" />
    <vehicle id="297" type="typeWE" route="left" depart="1219" />
    <vehicle id="298" type="typeWE" route="right" depart="1225" />
    <vehicle id="299" type="typeWE" route="right" depart="1232" />
    <vehicle id="300" type="typeWE" route="left" depart="1233" />
    <vehicle id="301" type="typeWE" route="right" depart="1237" />
    <vehicle id="302" type="typeWE" route="right" depart="1241" />
    <vehicle id="303" type="typeWE" route="left" depart="1245" />
    <vehicle id="304" type="typeWE" route="right" depart="1249" />
    <vehicle id="305" type="typeWE" route="right" depart="1253" />
    <vehicle id="306" type="typeWE" route="left" depart="1261" />
    <vehicle id="307" type="typeNS" route="down" depart="1266" color="1,0,0"/>
    <vehicle id="308" type="typeWE" route="right" depart="1280" />
    <vehicle id="309" type="typeNS" route="down" depart="1292" color="1,0,0"/>
    <vehicle id="310" type="typeNS" route="down" depart="1295" color="1,0,0"/>
    <vehicle id="311" type="typeNS" route="down" depart="1296" color="1,0,0"/>
    <vehicle id="312" type="typeWE" route="right" depart="1307" />
    <vehicle id="313" type="typeWE" route="left" depart="1309" />
    <vehicle id="314" type="typeWE" route="left" depart="1312" />
    <vehicle id="315" type="typeNS" route="down" depart="1316" color="1,0,0"/>
    <vehicle id="316" type="typeWE" route="right" depart="1317" />
    <vehicle id="317" type="typeWE" route="right" depart="1320" />
    <vehicle id="318" type="typeNS" route="down" depart="1323" color="1,0,0"/>
    <vehicle id="319" type="typeWE" route="left" depart="1324" />
    <vehicle id="320" type="typeWE" route="left" depart="1333" />
    <vehicle id="321" type="typeWE" route="right" depart="1334" />
    <vehicle id="322" type="typeWE" route="left" depart="1342" />
    <vehicle id="323" type="typeWE" route="left" depart="1346" />
    <vehicle id="324" type="typeWE" route="right" depart="1348" />
    <vehicle id="325" type="typeWE" route="right" depart="1350" />
    <vehicle id="326" type="typeWE" route="left" depart="1353" />
    <vehicle id="327" type="typeWE" route="left" depart="1355" />
    <vehicle id="328" type="typeWE" route="right" depart="1356" />
    <vehicle id="329" type="typeWE" route="left" depart="1361" />
    <vehicle id="330" type="typeNS" route="down" depart="1362" color="1,0,0"/>
    <vehicle id="331" type="typeWE" route="right" depart="1378" />
    <vehicle id="332" type="typeNS" route="down" depart="1381" color="1,0,0"/>
    <vehicle id="333" type="typeWE" route="left" depart="1384" />
    <vehicle id="334" type="typeWE" route="left" depart="1393" />
    <vehicle id="335" type="typeWE" route="right" depart="1394" />
    <vehicle id="336" type="typeNS" route="down" depart="1394" color="1,0,0"/>
    <vehicle id="337" type="typeWE" route="left" depart="1408" />
    <vehicle id="338" type="typeWE" route="left" depart="1409" />
    <vehicle id="339" type="typeNS" route="down" depart="1410" color="1,0,0"/>
    <vehicle id="340" type="typeWE" route="left" depart="1414" />
    <vehicle id="341" type="typeWE" route="right" depart="1417" />
    <vehicle id="342" type="typeWE" route="left" depart="1421" />
    <vehicle id="343" type="typeWE" route="right" depart="1426" />
    <vehicle id="344" type="typeWE" route="left" depart="1430" />
    <vehicle id="345" type="typeWE" route="left" depart="1436" />
    <vehicle id="346" type="typeWE" route="left" depart="1441" />
    <vehicle id="347" type="typeWE" route="left" depart="1443" />
    <vehicle id="348" type="typeWE" route="right" depart="1449" />
    <vehicle id="349" type="typeNS" route="down" depart="1454" color="1,0,0"/>
    <vehicle id="350" type="typeWE" route="left" depart="1456" />
    <vehicle id="351" type="typeWE" route="left" depart="1458" />
    <vehicle id="352" type="typeWE" route="left" depart="1461" />
    <vehicle id="353" type="typeWE" route="right" depart="1462" />
    <vehicle id="354" type="typeWE" route="left" depart="1464" />
    <vehicle id="355" type="typeNS" route="down" depart="1472" color="1,0,0"/>
    <vehicle id="356" type="typeWE" route="right" depart="1485" />
    <vehicle id="357" type="typeNS" route="down" depart="1489" color="1,0,0"/>
    <vehicle id="358" type="typeWE" route="right" depart="1490" />
    <vehicle id="359" type="typeWE" route="right" depart="1499" />
    <vehicle id="360" type="typeWE" route="right" depart="1508" />
    <vehicle id="361" type="typeWE" route="left" depart="1513" />
    <vehicle id="362" type="typeWE" route="right" depart="1516" />
    <vehicle id="363" type="typeWE" route="left" depart="1516" />
    <vehicle id="364" type="typeWE" route="right" depart="1517" />
    <vehicle id="365" type="typeWE" route="left" depart="1522" />
    <vehicle id="366" type="typeWE" route="right" depart="1541" />
    <vehicle id="367" type="typeNS" route="down" depart="1543" color="1,0,0"/>
    <vehicle id="368" type="typeWE" route="left" depart="1545" />
    <vehicle id="369" type="typeWE" route="left" depart="1547" />
    <vehicle id="370" type="typeWE" route="right" depart="1562" />
    <vehicle id="371" type="typeWE" route="left" depart="1564" />
    <vehicle id="372" type="typeWE" route="left" depart="1567" />
    <vehicle id="373" type="typeWE" route="right" depart="1578" />
    <vehicle id="374" type="typeNS" route="down" depart="1583" color="1,0,0"/>
    <vehicle id="375" type="typeWE" route="right" depart="1604" />
    <vehicle id="376" type="typeWE" route="right" depart="1606" />
    <vehicle id="377" type="typeWE" route="left" depart="1611" />
    <vehicle id="378" type="typeWE" route="left" depart="1617" />
    <vehicle id="379" type="typeWE" route="right" depart="1618" />
    <vehicle id="380" type="typeNS" route="down" depart="1619" color="1,0,0"/>
    <vehicle id="381" type="typeWE" route="left" depart="1624" />
    <vehicle id="382" type="typeWE" route="right" depart="1625" />
    <vehicle id="383" type="typeWE" route="right" depart="1629" />
    <vehicle id="384" type="typeNS" route="down" depart="1631" color="1,0,0"/>
    <vehicle id="385" type="typeWE" route="left" depart="1636" />
    <vehicle id="386" type="typeWE" route="right" depart="1638" />
    <vehicle id="387" type="typeWE" route="left" depart="1641" />
    <vehicle id="388" type="typeWE" route="right" depart="1658" />
    <vehicle id="389" type="typeWE" route="right" depart="1661" />
    <vehicle id="390" type="typeWE" route="left" depart="1662" />
    <vehicle id="391" type="typeWE" route="right" depart="1665" />
    <vehicle id="392" type="typeWE" route="right" depart="1666" />
    <vehicle id="393" type="typeWE" route="left" depart="1669" />
    <vehicle id="394" type="typeWE" route="left" depart="1675" />
    <vehicle id="395" type="typeWE" route="left" depart="1677" />
    <vehicle id="396" type="typeWE" route="left" depart="1685" />
    <vehicle id="397" type="typeWE" route="left" depart="1689" />
    <vehicle id="398" type="typeWE" route="right" depart="1691" />
    <vehicle id="399" type="typeWE" route="left" depart="1696" />
    <vehicle id="400" type="typeWE" route="left" depart="1697" />
    <vehicle id="401" type="typeWE" route="right" depart="1698" />
    <vehicle id="402" type="typeWE" route="right" depart="1707" />
    <vehicle id="403" type="typeWE" route="right" depart="1708" />
    <vehicle id="404" type="typeWE" route="left" depart="1710" />
    <vehicle id="405" type="typeWE" route="left" depart="1718" />
    <vehicle id="406" type="typeWE" route="left" depart="1721" />
    <vehicle id="407" type="typeNS" route="down" depart="1722" color="1,0,0"/>
    <vehicle id="408" type="typeWE" route="left" depart="1726" />
    <vehicle id="409" type="typeWE" route="right" depart="1732" />
    <vehicle id="410" type="typeWE" route="right" depart="1735" />
    <vehicle id="411" type="typeWE" route="left" depart="1739" />
    <vehicle id="412" type="typeWE" route="right" depart="1748" />
    <vehicle id="413" type="typeWE" route="right" depart="1751" />
    <vehicle id="414" type="typeWE" route="right" depart="1752" />
    <vehicle id="415" type="typeWE" route="right" depart="1754" />
    <vehicle id="416" type="typeWE" route="right" depart="1757" />
    <vehicle id="417" type="typeWE" route="left" depart="1758" />
    <vehicle id="418" type="typeWE" route="left" depart="1760" />
    <vehicle id="419" type="typeWE" route="right" depart="1761" />
    <vehicle id="420" type="typeNS" route="down" depart="1766" color="1,0,0"/>
    <vehicle id="421" type="typeWE" route="left" depart="1774" />
    <vehicle id="422" type="typeWE" route="left" depart="1781" />
    <vehicle id="423" type="typeWE" route="left" depart="1782" />
    <vehicle id="424" type="typeWE" route="right" depart="1787" />
    <vehicle id="425" type="typeWE" route="right" depart="1788" />
    <vehicle id="426" type="typeWE" route="left" depart="1790" />
    <vehicle id="427" type="typeWE" route="left" depart="1791" />
    <vehicle id="428" type="typeWE" route="right" depart="1792" />
    <vehicle id="429" type="typeNS" route="down" depart="1801" color="1,0,0"/>
    <vehicle id="430" type="typeWE" route="left" depart="1803" />
    <vehicle id="431" type="typeWE" route="right" depart="1807" />
    <vehicle id="432" type="typeWE" route="left" depart="1808" />